Version 4
SHEET 1 880 680
WIRE 16 144 -16 144
WIRE 32 144 16 144
WIRE 160 144 32 144
WIRE 32 224 -16 224
WIRE 160 224 32 224
WIRE -16 240 -16 224
FLAG -16 240 0
FLAG 16 144 1
SYMBOL SLI -16 224 R180
WINDOW 0 45 63 Left 2
WINDOW 3 45 51 Left 2
WINDOW 123 45 18 Left 2
WINDOW 39 45 40 Left 2
WINDOW 40 45 29 Left 2
SYMATTR InstName I1
SYMATTR Value value={2*pi*f/(s^2+(2*pi*f)^2)}
SYMBOL SLR 32 144 R0
SYMATTR InstName R1
SYMATTR Value value={R}
SYMBOL SLC 160 144 R0
SYMATTR InstName C1
SYMATTR Value value={C}
TEXT 160 248 Right 2 !.param R=1k C=1.6u f=1k
