Version 4
SHEET 1 880 680
WIRE 112 64 32 64
WIRE 176 64 112 64
WIRE 32 160 32 144
WIRE 32 160 16 160
WIRE 80 160 32 160
WIRE 176 160 176 144
WIRE 176 160 160 160
WIRE 208 160 176 160
WIRE 240 160 208 160
WIRE 32 176 32 160
WIRE 176 176 176 160
WIRE 112 256 32 256
WIRE 176 256 112 256
FLAG 16 160 0
FLAG 112 64 inP
FLAG 112 256 inN
FLAG 208 160 C
SYMBOL SLR 176 64 R0
WINDOW 3 16 28 Left 2
WINDOW 39 16 51 Left 2
WINDOW 40 16 63 Left 2
SYMATTR Value value={R_a}
SYMATTR InstName R1P
SYMATTR Value2 noisetemp={T}
SYMBOL SLR 176 176 R0
WINDOW 3 17 18 Left 2
WINDOW 123 17 28 Left 2
WINDOW 39 17 38 Left 2
WINDOW 40 17 49 Left 2
SYMATTR Value value={R_a}
SYMATTR Value2 noisetemp={T}
SYMATTR InstName R1N
SYMBOL SLI 32 176 M0
WINDOW 0 41 13 Left 2
WINDOW 123 41 35 Left 2
WINDOW 39 41 45 Left 2
WINDOW 40 41 55 Left 2
SYMATTR InstName I1N
SYMATTR SpiceLine2 noise={S_B}
SYMATTR Value value={I_B}
SYMBOL SLI 32 144 R180
WINDOW 0 45 62 Left 2
WINDOW 3 45 51 Left 2
WINDOW 123 45 16 Left 2
WINDOW 39 45 39 Left 2
WINDOW 40 45 28 Left 2
SYMATTR InstName I1P
SYMATTR Value value={I_A}
SYMATTR SpiceLine2 noise={S_A}
SYMBOL SLR 80 160 M90
WINDOW 0 -8 40 VBottom 2
WINDOW 3 8 39 VTop 2
WINDOW 123 40 46 VTop 2
WINDOW 39 19 38 VTop 2
WINDOW 40 30 28 VTop 2
SYMATTR InstName R2
SYMATTR Value value={R_c}
SYMATTR Value2 noisetemp={T}
TEXT 32 280 Left 2 !.source I1P I1N
TEXT 32 296 Left 2 !.detector V_inP V_inN
