* Z:\home\anton\DATA\SLiCAP\SLiCAP_github\SLiCAP_python\files\examples\balancedCircuits\cir\Tcircuit1.asc
R1P inP C R value={R_a} noisetemp={T} noiseflow=0 dcvar=0 dcvarlot=0
R1N C inN R value={R_a} noisetemp={T} noiseflow=0 dcvar=0 dcvarlot=0
I1N 0 inN I value={I_B} dc=0 dcvar=0 noise={S_B}
I1P 0 inP I value={I_A} dc=0 dcvar=0 noise={S_A}
R2 0 C R value={R_c} noisetemp={T} noiseflow=0 dcvar=0 dcvarlot=0
.source I1P I1N
.detector V_inP V_inN
.backanno
.end
