Version 4
SHEET 1 880 680
WIRE 160 -32 128 -32
WIRE 192 -32 160 -32
WIRE 304 -32 288 -32
WIRE 320 -32 304 -32
WIRE 192 48 128 48
WIRE 288 48 192 48
WIRE 128 64 128 48
FLAG 128 64 0
FLAG 160 -32 1
FLAG 304 -32 2
SYMBOL SLV 128 -32 M0
SYMATTR InstName V1
SYMBOL SLL 192 48 R0
SYMATTR InstName L1
SYMATTR Value {L_a}
SYMBOL SLL 288 48 M0
SYMATTR InstName L2
SYMATTR Value {L_b}
TEXT 208 64 Left 2 !K1 L1 L2 {k}
