Version 4
SHEET 1 880 680
WIRE 160 -32 128 -32
WIRE 176 -32 160 -32
WIRE 368 -32 352 -32
WIRE 384 -32 368 -32
WIRE 176 48 128 48
WIRE 352 48 176 48
WIRE 128 64 128 48
FLAG 128 64 0
FLAG 160 -32 1
FLAG 368 -32 2
SYMBOL SLV 128 -32 M0
SYMATTR InstName V1
SYMBOL SLL 176 48 R0
SYMATTR InstName L1
SYMATTR Value value={L_a}
SYMBOL SLL 352 48 M0
SYMATTR InstName L2
SYMATTR Value value={L_b}
TEXT 208 64 Left 2 !K1 L1 L2 {k}
