Version 4
SHEET 1 1264 1580
SYMBOL SLC -528 -320 R0
WINDOW 3 11 71 Left 2
SYMATTR InstName C1
SYMBOL SLE -784 -112 R0
SYMATTR InstName E1
SYMBOL SLI -832 -320 R0
SYMATTR InstName I1
SYMBOL SLD -416 -320 R0
SYMATTR InstName D1
SYMBOL SLG -208 -112 R0
SYMATTR InstName G1
SYMBOL SLEZ -592 -112 R0
SYMATTR InstName E2
SYMBOL SLJ -16 -320 R0
SYMATTR InstName J1
SYMBOL SLL -80 -240 R0
SYMATTR InstName L1
SYMBOL SLM 96 -272 R0
SYMATTR InstName M1
SYMBOL SLV -672 -320 R0
SYMATTR InstName V1
SYMBOL SLMD 208 -272 R0
SYMATTR InstName M2
SYMATTR Description MOSFET transistor
SYMBOL SLN -160 112 R0
SYMATTR InstName N1
SYMBOL SLO -848 160 R0
SYMATTR InstName O1
SYMBOL SLQ 432 -288 R0
SYMATTR InstName Q1
SYMBOL SLQD 544 -336 R0
SYMATTR InstName Q2
SYMBOL SLR -352 -320 R0
SYMATTR InstName R1
SYMBOL SLR_r -224 -320 R0
SYMATTR InstName R2
SYMBOL SLT 368 -112 R0
SYMATTR InstName T1
SYMBOL SLW 544 -112 R0
SYMATTR InstName W1
SYMBOL SLN_noise 16 112 R0
WINDOW 0 -80 -69 Left 2
WINDOW 38 -80 -53 Left 2
WINDOW 3 -77 -34 Left 2
SYMATTR InstName U3
SYMBOL SLN_dcvar 144 208 R0
WINDOW 0 -5 -166 Left 2
WINDOW 3 -5 -133 Left 2
WINDOW 38 -3 -151 Left 2
SYMATTR InstName U4
SYMBOL SLO_noise -720 176 R0
WINDOW 0 -20 -82 Left 2
WINDOW 3 -21 -65 Left 2
SYMATTR InstName U1
SYMBOL SLM_noise 256 304 R0
SYMATTR InstName U5
SYMBOL SLQ_noise 576 304 R0
SYMATTR InstName U6
SYMBOL SLXM -864 352 R0
SYMATTR InstName U7
SYMBOL SLXMD -624 352 R0
SYMATTR InstName U8
SYMBOL SLXQ -368 352 R0
SYMATTR InstName U9
SYMBOL SLXQD -96 304 R0
SYMATTR InstName Q3
SYMBOL SLO_dcvar -528 176 R0
SYMATTR InstName U2
SYMBOL SLH -48 -112 R0
WINDOW 123 16 26 Left 2
SYMATTR InstName H3
SYMBOL SLF -432 -112 R0
WINDOW 123 -15 -2 Left 2
SYMATTR InstName F1
SYMBOL SLHZ 128 -128 R0
WINDOW 39 -29 0 Left 2
SYMATTR InstName H1
SYMBOL SLM_noisyNullor 624 112 R0
SYMATTR InstName U10
TEXT -840 -344 Left 2 ;SLI
TEXT -680 -344 Left 2 ;SLV
TEXT -536 -344 Left 2 ;SLC
TEXT -424 -344 Left 2 ;SLD
TEXT -320 -344 Left 2 ;SLR
TEXT -232 -344 Left 2 ;SLR_r
TEXT -88 -344 Left 2 ;SLL
TEXT 24 -344 Left 2 ;SLJ
TEXT 136 -344 Left 2 ;SLM
TEXT 288 -344 Left 2 ;SLMD
TEXT 424 -344 Left 2 ;SLQ
TEXT 624 -344 Left 2 ;SLQD
TEXT -816 -192 Left 2 ;SLE
TEXT -624 -192 Left 2 ;SLEZ
TEXT -416 -192 Left 2 ;SLF
TEXT -240 -192 Left 2 ;SLG
TEXT -48 -192 Left 2 ;SLH
TEXT 136 -192 Left 2 ;SLHZ
TEXT 344 -192 Left 2 ;SLT
TEXT 528 -192 Left 2 ;SLW
TEXT -840 32 Left 2 ;SLO
TEXT -744 32 Left 2 ;SLO_noise
TEXT -536 32 Left 2 ;SLO_dcvar
TEXT -192 32 Left 2 ;SLN
TEXT -64 24 Left 2 ;SLN_noise
TEXT 136 24 Left 2 ;SLN_dcvar
TEXT -352 272 Left 2 ;SLXQ
TEXT -560 272 Left 2 ;SLXMD
TEXT -848 272 Left 2 ;SLXM
TEXT -32 272 Left 2 ;SLXQD
TEXT 176 272 Left 2 ;SLM_noise
TEXT 496 272 Left 2 ;SLQ_noise
TEXT 512 32 Left 2 ;SLM_noisyNullor
