Version 4
SHEET 1 880 680
WIRE 16 32 -16 32
WIRE 112 32 96 32
WIRE 224 32 192 32
WIRE 320 32 224 32
WIRE 352 32 320 32
FLAG -16 112 0
FLAG 96 112 0
FLAG 224 112 0
FLAG 352 112 0
FLAG 320 32 out
SYMBOL SLV -16 32 M0
SYMATTR InstName V1
SYMATTR Value value=1
SYMBOL SLL 96 32 R270
WINDOW 0 39 -52 VTop 2
WINDOW 3 41 -19 VBottom 2
WINDOW 123 27 -42 VBottom 2
SYMATTR InstName L1
SYMATTR Value value={L_a*R}
SYMBOL SLL 192 32 R270
WINDOW 0 39 -52 VTop 2
WINDOW 3 41 -20 VBottom 2
WINDOW 123 28 -42 VBottom 2
SYMATTR InstName L2
SYMATTR Value value={L_b*R}
SYMBOL SLC 96 32 R0
SYMATTR InstName C1
SYMATTR Value value={C_a/R}
SYMBOL SLC 224 32 R0
SYMATTR InstName C2
SYMATTR Value value={C_b/R}
SYMBOL SLR 352 32 R0
SYMATTR InstName R1
SYMATTR Value value={R}
TEXT -16 136 Left 2 !.source V1
TEXT 40 136 Left 2 !.detector V_out
